Circuit: * C:\Users\tsmilkst\Downloads\ToDo\TinazSRAM\SRAM_cellsramtz1.asc

Warning: Pd = 0 is less than W.
Warning: Ps = 0 is less than W.
Warning: Pd = 0 is less than W.
Warning: Ps = 0 is less than W.
Warning: Pd = 0 is less than W.
Warning: Ps = 0 is less than W.
Warning: Pd = 0 is less than W.
Warning: Ps = 0 is less than W.
Warning: Pd = 0 is less than W.
Warning: Ps = 0 is less than W.
Warning: Pd = 0 is less than W.
Warning: Ps = 0 is less than W.
Warning: Pd = 0 is less than W.
Warning: Ps = 0 is less than W.
Warning: Pd = 0 is less than W.
Warning: Ps = 0 is less than W.
Warning: Pd = 0 is less than W.
Warning: Ps = 0 is less than W.
Warning: Pd = 0 is less than W.
Warning: Ps = 0 is less than W.
Warning: Pd = 0 is less than W.
Warning: Ps = 0 is less than W.
Warning: Pd = 0 is less than W.
Warning: Ps = 0 is less than W.
Warning: Pd = 0 is less than W.
Warning: Ps = 0 is less than W.
Warning: Pd = 0 is less than W.
Warning: Ps = 0 is less than W.
Direct Newton iteration for .op point succeeded.

Date: Sat Mar 24 13:36:39 2018
Total elapsed time: 0.221 seconds.

tnom = 27
temp = 27
method = modified trap
totiter = 4299
traniter = 4264
tranpoints = 1643
accept = 1487
rejected = 156
matrix size = 18
fillins = 0
solver = Normal
Thread vector: 21.5/15.8[2] 5.1/3.2[2] 1.2/1.7[1] 0.2/1.7[1]  2592/500
Matrix Compiler1: 1.24 KB object code size  0.4/0.3/[0.1]
Matrix Compiler2: off  [0.1]/0.6/0.3

