Circuit: * C:\Users\colle\OneDrive - California Polytechnic State University\EE 307\Draft12.asc

Limiting rise time of source v3 to 0.0004
Limiting fall time of source v3 to 0.0004
Limiting rise time of source v2 to 0.0004
Limiting fall time of source v2 to 0.0004
WARNING: Less than two connections to node N003.  This node is used by V2.
WARNING: Less than two connections to node N002.  This node is used by V3.
Warning: Pd = 0 is less than W.
Warning: Ps = 0 is less than W.
Warning: Pd = 0 is less than W.
Warning: Ps = 0 is less than W.
Direct Newton iteration for .op point succeeded.

Date: Sun Jan 28 16:55:30 2018
Total elapsed time: 0.145 seconds.

tnom = 27
temp = 27
method = modified trap
totiter = 2170
traniter = 2156
tranpoints = 1079
accept = 1071
rejected = 8
matrix size = 7
fillins = 0
solver = Normal
Matrix Compiler1: 106 bytes object code size  0.0/0.0/[0.0]
Matrix Compiler2: 331 bytes object code size  0.1/0.1/[0.0]

