Circuit: * C:\Users\colle\OneDrive - California Polytechnic State University\EE 307\Draft2.asc

Limiting rise time of source v1 to 0.0002
Limiting fall time of source v1 to 0.0002
Warning: Pd = 0 is less than W.
Warning: Ps = 0 is less than W.
Warning: Pd = 0 is less than W.
Warning: Ps = 0 is less than W.
Direct Newton iteration for .op point succeeded.

Date: Sat Jan 27 13:02:13 2018
Total elapsed time: 0.164 seconds.

tnom = 27
temp = 27
method = modified trap
totiter = 3184
traniter = 3170
tranpoints = 1379
accept = 1280
rejected = 99
matrix size = 5
fillins = 0
solver = Normal
Matrix Compiler1:       8 opcodes  0.1/[0.1]/0.1
Matrix Compiler2: 335 bytes object code size  0.1/0.1/[0.1]

