Circuit: * C:\Users\colle\OneDrive - California Polytechnic State University\EE 307\Draft12.asc

Limiting rise time of source v3 to 0.0004
Limiting fall time of source v3 to 0.0004
Limiting rise time of source v2 to 0.0004
Limiting fall time of source v2 to 0.0004
Direct Newton iteration for .op point succeeded.

Date: Sat Jan 20 16:19:46 2018
Total elapsed time: 0.094 seconds.

tnom = 27
temp = 27
method = modified trap
totiter = 2607
traniter = 2603
tranpoints = 1111
accept = 1095
rejected = 16
matrix size = 8
fillins = 0
solver = Normal
Matrix Compiler1: 300 bytes object code size  0.0/0.2/[0.0]
Matrix Compiler2:      51 opcodes  0.0/[0.0]/0.1

