Error: .include filename missing
Circuit: * C:\Users\colle\OneDrive - California Polytechnic State University\EE 307\Draft2.asc

WARNING: Less than two connections to node CLK.  This node is used by V1.
Warning: Pd = 0 is less than W.
Warning: Ps = 0 is less than W.
Warning: Pd = 0 is less than W.
Warning: Ps = 0 is less than W.
Warning: Pd = 0 is less than W.
Warning: Ps = 0 is less than W.
Warning: Pd = 0 is less than W.
Warning: Ps = 0 is less than W.
Warning: Pd = 0 is less than W.
Warning: Ps = 0 is less than W.
Warning: Pd = 0 is less than W.
Warning: Ps = 0 is less than W.
Warning: Pd = 0 is less than W.
Warning: Ps = 0 is less than W.
Warning: Pd = 0 is less than W.
Warning: Ps = 0 is less than W.
Direct Newton iteration for .op point succeeded.

Date: Sun Mar 25 12:12:26 2018
Total elapsed time: 0.365 seconds.

tnom = 27
temp = 27
method = modified trap
totiter = 12444
traniter = 12430
tranpoints = 4673
accept = 3634
rejected = 1039
matrix size = 11
fillins = 0
solver = Normal
Matrix Compiler1:      27 opcodes  0.2/[0.2]/0.2
Matrix Compiler2: 839 bytes object code size  0.2/0.3/[0.2]

