Circuit: * C:\Users\colle\OneDrive - California Polytechnic State University\EE 307\FlipFlopTEST.asc

Warning: Pd = 0 is less than W.
Warning: Ps = 0 is less than W.
Warning: Pd = 0 is less than W.
Warning: Ps = 0 is less than W.
Warning: Pd = 0 is less than W.
Warning: Ps = 0 is less than W.
Warning: Pd = 0 is less than W.
Warning: Ps = 0 is less than W.
Warning: Pd = 0 is less than W.
Warning: Ps = 0 is less than W.
Warning: Pd = 0 is less than W.
Warning: Ps = 0 is less than W.
Warning: Pd = 0 is less than W.
Warning: Ps = 0 is less than W.
Warning: Pd = 0 is less than W.
Warning: Ps = 0 is less than W.
Warning: Pd = 0 is less than W.
Warning: Ps = 0 is less than W.
Warning: Pd = 0 is less than W.
Warning: Ps = 0 is less than W.
Direct Newton iteration for .op point succeeded.

Date: Sun Mar 18 20:58:37 2018
Total elapsed time: 0.440 seconds.

tnom = 27
temp = 27
method = modified trap
totiter = 17563
traniter = 17513
tranpoints = 6083
accept = 4578
rejected = 1505
matrix size = 25
fillins = 36
solver = Normal
Thread vector: 14.9/9.6[3] 4.4/3.8[2] 1.9/1.8[1] 0.1/1.1[1]  2592/500
Matrix Compiler1: 4.33 KB object code size  0.7/0.4/[0.1]
Matrix Compiler2: 3.40 KB object code size  0.4/0.4/[0.2]

