Circuit: * C:\Users\colle\OneDrive - California Polytechnic State University\EE 307\Simulating_hw4_Inverter.asc

Limiting rise time of source v3 to 0.0004
Limiting fall time of source v3 to 0.0004
Limiting rise time of source v2 to 0.0004
Limiting fall time of source v2 to 0.0004
WARNING: Less than two connections to node N003.  This node is used by V2.
Warning: Pd = 0 is less than W.
Warning: Ps = 0 is less than W.
Warning: Pd = 0 is less than W.
Warning: Ps = 0 is less than W.
Direct Newton iteration for .op point succeeded.

Date: Mon Feb 12 00:49:33 2018
Total elapsed time: 0.144 seconds.

tnom = 27
temp = 27
method = modified trap
totiter = 2427
traniter = 2421
tranpoints = 1146
accept = 1116
rejected = 30
matrix size = 7
fillins = 0
solver = Normal
Matrix Compiler1: off  [0.0]/0.1/0.1
Matrix Compiler2: 413 bytes object code size  0.1/0.1/[0.0]

