Circuit: * C:\Users\colle\OneDrive - California Polytechnic State University\EE 307\Simulating_Full_Adder_Carry.asc

Limiting rise time of source v4 to 0.00027
Limiting fall time of source v4 to 0.00027
Limiting rise time of source v3 to 0.00058
Limiting fall time of source v3 to 0.00058
WARNING: Specified period is not longer than the sum of Trise, Tfall, and Ton for v2.  Increasing period to 12
Limiting rise time of source v2 to 2.4869e-015
Limiting fall time of source v2 to 2.4869e-015
Warning: Pd = 0 is less than W.
Warning: Ps = 0 is less than W.
Warning: Pd = 0 is less than W.
Warning: Ps = 0 is less than W.
Warning: Pd = 0 is less than W.
Warning: Ps = 0 is less than W.
Warning: Pd = 0 is less than W.
Warning: Ps = 0 is less than W.
Warning: Pd = 0 is less than W.
Warning: Ps = 0 is less than W.
Warning: Pd = 0 is less than W.
Warning: Ps = 0 is less than W.
Warning: Pd = 0 is less than W.
Warning: Ps = 0 is less than W.
Warning: Pd = 0 is less than W.
Warning: Ps = 0 is less than W.
Warning: Pd = 0 is less than W.
Warning: Ps = 0 is less than W.
Warning: Pd = 0 is less than W.
Warning: Ps = 0 is less than W.
Warning: Pd = 0 is less than W.
Warning: Ps = 0 is less than W.
Warning: Pd = 0 is less than W.
Warning: Ps = 0 is less than W.
Warning: Pd = 0 is less than W.
Warning: Ps = 0 is less than W.
Warning: Pd = 0 is less than W.
Warning: Ps = 0 is less than W.
Direct Newton iteration for .op point succeeded.

Date: Sat Jan 27 16:19:18 2018
Total elapsed time: 0.335 seconds.

tnom = 27
temp = 27
method = modified trap
totiter = 10463
traniter = 10439
tranpoints = 2697
accept = 2207
rejected = 490
matrix size = 25
fillins = 16
solver = Normal
Thread vector: 21.8/17.4[2] 5.8/5.1[2] 1.6/2.0[1] 0.2/1.3[1]  2592/500
Matrix Compiler1: 2.36 KB object code size  0.8/0.5/[0.3]
Matrix Compiler2: 2.87 KB object code size  0.5/0.5/[0.5]

