Circuit: * C:\Users\colle\OneDrive - California Polytechnic State University\EE 307\Simulating_FF.asc

Warning: Pd = 0 is less than W.
Warning: Ps = 0 is less than W.
Warning: Pd = 0 is less than W.
Warning: Ps = 0 is less than W.
Warning: Pd = 0 is less than W.
Warning: Ps = 0 is less than W.
Warning: Pd = 0 is less than W.
Warning: Ps = 0 is less than W.
Warning: Pd = 0 is less than W.
Warning: Ps = 0 is less than W.
Warning: Pd = 0 is less than W.
Warning: Ps = 0 is less than W.
Warning: Pd = 0 is less than W.
Warning: Ps = 0 is less than W.
Warning: Pd = 0 is less than W.
Warning: Ps = 0 is less than W.
Warning: Pd = 0 is less than W.
Warning: Ps = 0 is less than W.
Warning: Pd = 0 is less than W.
Warning: Ps = 0 is less than W.
Direct Newton iteration for .op point succeeded.

Date: Sun Mar 25 00:22:48 2018
Total elapsed time: 0.544 seconds.

tnom = 27
temp = 27
method = modified trap
totiter = 17563
traniter = 17513
tranpoints = 6083
accept = 4578
rejected = 1505
matrix size = 25
fillins = 36
solver = Normal
Thread vector: 25.5/16.4[3] 7.3/4.8[3] 2.7/1.9[2] 0.3/1.7[1]  2592/500
Matrix Compiler1: 4.33 KB object code size  1.1/0.7/[0.8]
Matrix Compiler2: 3.40 KB object code size  0.5/0.6/[0.5]

