Circuit: * C:\Users\colle\OneDrive - California Polytechnic State University\EE 307\Simulating_MUX_2_1.asc

Warning: Pd = 0 is less than W.
Warning: Ps = 0 is less than W.
Warning: Pd = 0 is less than W.
Warning: Ps = 0 is less than W.
Warning: Pd = 0 is less than W.
Warning: Ps = 0 is less than W.
Warning: Pd = 0 is less than W.
Warning: Ps = 0 is less than W.
Warning: Pd = 0 is less than W.
Warning: Ps = 0 is less than W.
Warning: Pd = 0 is less than W.
Warning: Ps = 0 is less than W.
Warning: Pd = 0 is less than W.
Warning: Ps = 0 is less than W.
Warning: Pd = 0 is less than W.
Warning: Ps = 0 is less than W.
Warning: Pd = 0 is less than W.
Warning: Ps = 0 is less than W.
Warning: Pd = 0 is less than W.
Warning: Ps = 0 is less than W.
Direct Newton iteration for .op point succeeded.

Date: Fri Feb 02 23:11:26 2018
Total elapsed time: 0.225 seconds.

tnom = 27
temp = 27
method = modified trap
totiter = 7158
traniter = 7144
tranpoints = 2119
accept = 1915
rejected = 204
matrix size = 19
fillins = 8
solver = Normal
Matrix Compiler1: 1.52 KB object code size  0.7/0.4/[0.3]
Matrix Compiler2: 1.97 KB object code size  0.4/0.4/[0.3]

