Circuit: * C:\Users\colle\OneDrive - California Polytechnic State University\EE 307\Simulating_Full_Adder.asc

WARNING: Specified period is not longer than the sum of Trise, Tfall, and Ton for v2.  Increasing period to 0.012
WARNING: Less than two connections to node NC_01.  This node is used by V4.
Warning: Pd = 0 is less than W.
Warning: Ps = 0 is less than W.
Warning: Pd = 0 is less than W.
Warning: Ps = 0 is less than W.
Warning: Pd = 0 is less than W.
Warning: Ps = 0 is less than W.
Warning: Pd = 0 is less than W.
Warning: Ps = 0 is less than W.
Warning: Pd = 0 is less than W.
Warning: Ps = 0 is less than W.
Warning: Pd = 0 is less than W.
Warning: Ps = 0 is less than W.
Direct Newton iteration for .op point succeeded.

Date: Sat Jan 27 18:07:50 2018
Total elapsed time: 0.216 seconds.

tnom = 27
temp = 27
method = modified trap
totiter = 6359
traniter = 6342
tranpoints = 2204
accept = 1986
rejected = 218
matrix size = 17
fillins = 0
solver = Normal
Matrix Compiler1: 1.10 KB object code size  0.5/0.3/[0.2]
Matrix Compiler2: 1.72 KB object code size  0.2/0.2/[0.2]

