Circuit: * C:\Users\colle\OneDrive - California Polytechnic State University\EE 307\Simulating_FF_try.asc

Warning: Pd = 0 is less than W.
Warning: Ps = 0 is less than W.
Warning: Pd = 0 is less than W.
Warning: Ps = 0 is less than W.
Warning: Pd = 0 is less than W.
Warning: Ps = 0 is less than W.
Warning: Pd = 0 is less than W.
Warning: Ps = 0 is less than W.
Warning: Pd = 0 is less than W.
Warning: Ps = 0 is less than W.
Warning: Pd = 0 is less than W.
Warning: Ps = 0 is less than W.
Warning: Pd = 0 is less than W.
Warning: Ps = 0 is less than W.
Warning: Pd = 0 is less than W.
Warning: Ps = 0 is less than W.
Warning: Pd = 0 is less than W.
Warning: Ps = 0 is less than W.
Warning: Pd = 0 is less than W.
Warning: Ps = 0 is less than W.
Direct Newton iteration for .op point succeeded.

Date: Sun Mar 25 06:41:24 2018
Total elapsed time: 0.548 seconds.

tnom = 27
temp = 27
method = modified trap
totiter = 17563
traniter = 17513
tranpoints = 6083
accept = 4578
rejected = 1505
matrix size = 25
fillins = 36
solver = Normal
Thread vector: 20.7/16.6[3] 8.0/3.8[3] 2.9/2.3[3] 0.2/1.8[1]  2592/500
Matrix Compiler1: 4.33 KB object code size  1.4/0.7/[0.4]
Matrix Compiler2: 3.40 KB object code size  0.6/0.6/[0.4]

