Circuit: * C:\Users\colle\OneDrive - California Polytechnic State University\EE 307\Draft2.asc

Warning: Pd = 0 is less than W.
Warning: Ps = 0 is less than W.
Warning: Pd = 0 is less than W.
Warning: Ps = 0 is less than W.
Warning: Pd = 0 is less than W.
Warning: Ps = 0 is less than W.
Warning: Pd = 0 is less than W.
Warning: Ps = 0 is less than W.
Direct Newton iteration for .op point succeeded.

Date: Wed Mar 14 05:30:40 2018
Total elapsed time: 0.511 seconds.

tnom = 27
temp = 27
method = modified trap
totiter = 17197
traniter = 17162
tranpoints = 5901
accept = 4498
rejected = 1403
matrix size = 25
fillins = 38
solver = Normal
Thread vector: 18.3/11.5[3] 4.6/4.8[1] 1.7/2.3[1] 0.1/1.2[1]  2592/500
Matrix Compiler1: 4.45 KB object code size  0.9/0.4/[0.3]
Matrix Compiler2: off  [0.4]/0.5/0.4

