Circuit: * C:\Users\colle\OneDrive - California Polytechnic State University\EE 307\Inverter.asc

Fatal Error: No analysis request found.
