Circuit: * C:\Users\colle\OneDrive - California Polytechnic State University\EE 307\FinalFiles\FlipFlopTEST.asc

Warning: Pd = 0 is less than W.
Warning: Ps = 0 is less than W.
Warning: Pd = 0 is less than W.
Warning: Ps = 0 is less than W.
Warning: Pd = 0 is less than W.
Warning: Ps = 0 is less than W.
Warning: Pd = 0 is less than W.
Warning: Ps = 0 is less than W.
Direct Newton iteration for .op point succeeded.

Date: Wed Mar 14 05:29:55 2018
Total elapsed time: 0.435 seconds.

tnom = 27
temp = 27
method = modified trap
totiter = 17197
traniter = 17162
tranpoints = 5901
accept = 4498
rejected = 1403
matrix size = 25
fillins = 38
solver = Normal
Thread vector: 24.9/16.5[3] 7.4/4.8[3] 2.5/3.1[1] 0.2/1.2[1]  2592/500
Matrix Compiler1: 4.45 KB object code size  1.2/0.7/[0.3]
Matrix Compiler2: off  [0.4]/0.5/0.6

