Circuit: * C:\Users\colle\OneDrive - California Polytechnic State University\EE 307\Draft4.asc

Fatal Error: Port(pin) count mismatch between the definition of subcircuit "mult_4_2" and instance: "xx1"
The instance has more connection terminals than the definition.
