Circuit: * C:\Users\colle\OneDrive - California Polytechnic State University\EE 307\Draft1.asc

Limiting rise time of source v4 to 0.0003
Limiting fall time of source v4 to 0.0003
Limiting rise time of source v3 to 0.0012
Limiting fall time of source v3 to 0.0012
Limiting rise time of source v2 to 0.0006
Limiting fall time of source v2 to 0.0006
Warning: Pd = 0 is less than W.
Warning: Ps = 0 is less than W.
Warning: Pd = 0 is less than W.
Warning: Ps = 0 is less than W.
Warning: Pd = 0 is less than W.
Warning: Ps = 0 is less than W.
Warning: Pd = 0 is less than W.
Warning: Ps = 0 is less than W.
Warning: Pd = 0 is less than W.
Warning: Ps = 0 is less than W.
Warning: Pd = 0 is less than W.
Warning: Ps = 0 is less than W.
Warning: Pd = 0 is less than W.
Warning: Ps = 0 is less than W.
Warning: Pd = 0 is less than W.
Warning: Ps = 0 is less than W.
Warning: Pd = 0 is less than W.
Warning: Ps = 0 is less than W.
Warning: Pd = 0 is less than W.
Warning: Ps = 0 is less than W.
Warning: Pd = 0 is less than W.
Warning: Ps = 0 is less than W.
Warning: Pd = 0 is less than W.
Warning: Ps = 0 is less than W.
Warning: Pd = 0 is less than W.
Warning: Ps = 0 is less than W.
Warning: Pd = 0 is less than W.
Warning: Ps = 0 is less than W.
Direct Newton iteration for .op point succeeded.

Date: Sat Jan 27 15:24:49 2018
Total elapsed time: 0.285 seconds.

tnom = 27
temp = 27
method = modified trap
totiter = 11064
traniter = 11040
tranpoints = 2739
accept = 2220
rejected = 519
matrix size = 25
fillins = 16
solver = Normal
Thread vector: 24.9/20.1[2] 7.5/6.2[2] 2.1/2.4[1] 0.3/1.5[1]  2592/500
Matrix Compiler1: 2.36 KB object code size  1.1/0.6/[0.5]
Matrix Compiler2: 2.87 KB object code size  0.6/0.7/[0.4]

