Circuit: * C:\Users\colle\OneDrive - California Polytechnic State University\EE 307\Final_proj_3-17\FlipFlopTEST.asc

Warning: Pd = 0 is less than W.
Warning: Ps = 0 is less than W.
Warning: Pd = 0 is less than W.
Warning: Ps = 0 is less than W.
Warning: Pd = 0 is less than W.
Warning: Ps = 0 is less than W.
Warning: Pd = 0 is less than W.
Warning: Ps = 0 is less than W.
Direct Newton iteration for .op point succeeded.

Date: Sun Mar 25 12:18:25 2018
Total elapsed time: 0.480 seconds.

tnom = 27
temp = 27
method = modified trap
totiter = 17182
traniter = 17147
tranpoints = 5909
accept = 4494
rejected = 1415
matrix size = 25
fillins = 38
solver = Normal
Thread vector: 42.6/17.7[3] 7.1/5.8[3] 2.3/3.7[1] 0.3/1.3[1]  2592/500
Matrix Compiler1: 4.45 KB object code size  1.0/0.6/[0.4]
Matrix Compiler2: 3.43 KB object code size  0.5/0.8/[0.4]

