Circuit: * C:\Users\colle\OneDrive - California Polytechnic State University\EE 307\Simulating_OR.asc

Warning: Pd = 0 is less than W.
Warning: Ps = 0 is less than W.
Warning: Pd = 0 is less than W.
Warning: Ps = 0 is less than W.
Warning: Pd = 0 is less than W.
Warning: Ps = 0 is less than W.
Warning: Pd = 0 is less than W.
Warning: Ps = 0 is less than W.
Warning: Pd = 0 is less than W.
Warning: Ps = 0 is less than W.
Warning: Pd = 0 is less than W.
Warning: Ps = 0 is less than W.
Warning: Pd = 0 is less than W.
Warning: Ps = 0 is less than W.
Warning: Pd = 0 is less than W.
Warning: Ps = 0 is less than W.
Warning: Pd = 0 is less than W.
Warning: Ps = 0 is less than W.
Warning: Pd = 0 is less than W.
Warning: Ps = 0 is less than W.
Direct Newton iteration for .op point succeeded.

Date: Fri Feb 02 21:56:46 2018
Total elapsed time: 0.256 seconds.

tnom = 27
temp = 27
method = modified trap
totiter = 7533
traniter = 7519
tranpoints = 2395
accept = 2102
rejected = 293
matrix size = 19
fillins = 8
solver = Normal
Matrix Compiler1: 1.52 KB object code size  0.5/0.2/[0.2]
Matrix Compiler2: off  [0.3]/0.4/0.3

