Circuit: * C:\Users\colle\OneDrive - California Polytechnic State University\EE 307\Simulating_Half_Adder.asc

WARNING: Specified period is not longer than the sum of Trise, Tfall, and Ton for v2.  Increasing period to 0.012
WARNING: Less than two connections to node N001.  This node is used by V2.
Warning: Pd = 0 is less than W.
Warning: Ps = 0 is less than W.
Warning: Pd = 0 is less than W.
Warning: Ps = 0 is less than W.
Direct Newton iteration for .op point succeeded.

Date: Sat Jan 27 18:21:42 2018
Total elapsed time: 0.191 seconds.

tnom = 27
temp = 27
method = modified trap
totiter = 5434
traniter = 5420
tranpoints = 2109
accept = 1909
rejected = 200
matrix size = 11
fillins = 0
solver = Normal
Matrix Compiler1: 396 bytes object code size  0.1/0.1/[0.0]
Matrix Compiler2: 821 bytes object code size  0.1/0.1/[0.0]

