Circuit: * C:\Users\colle\OneDrive - California Polytechnic State University\EE 307\Simulating_hw4_Inverter.asc

